Testing testing...
New line...New line...New line...New line...